LAMMPS (23 Oct 2017)

# ------------------------ INITIALIZATION ----------------------------
##    metal : [m] = g/mol, [x] = A,    [E]=eV, [q]=e, [T]=K, [t]=ps, [P]=bars=1e5Pa
units 		metal
dimension	3
boundary    p p p
atom_style	atomic
#variable latparam equal 3.61 #4.05

# ----------------------- ATOM DEFINITION ----------------------------

read_data   Ni25.lmp
  orthogonal box = (0 0 0) to (87.9525 87.9525 87.9525)
  reading atoms ...
  62500 atoms
group	Ni type 1
62500 atoms in group Ni

# ------------------------ FORCE FIELDS ------------------------------

pair_style	eam/fs #alloy
pair_coeff	* * Nickel_pot.txt Ni

# ------------------------- SETTINGS ---------------------------------
compute csym all centro/atom fcc
compute peratom all pe/atom

compute eng all pe/atom                          #c_eng : Epot/atom for each atom
compute eatomsav all reduce ave c_eng
#----------------- Thermo output ---------------------
thermo          10
thermo_style    custom step cpu pe ke fnorm temp lx ly lz press c_eatomsav

variable          Pressure  equal 0.1*press #change the unit from bar to MPa

#change_box all z delta 0 10

#thomas
#----------------- Simulation 1: Minimization + Relaxation ---------
## Relaxation parameters
## Min_style : sd = steepest descent, cg = conjugate gradients
min_style         cg
min_modify line   quadratic
#Minimization : etol    ftol   maxiter   maxeval
minimize          0   1e-7    10000      100000
  update every 1 steps, delay 0 steps, check yes
Step CPU PotEng KinEng Fnorm Temp Lx Ly Lz Press c_eatomsav
0            0    -274094.3            0 1.0012146e-11            0      87.9525      87.9525      87.9525    32.509331   -4.3855088
Loop time of 0.574979 on 1 procs for 1 steps with 62500 atoms

Minimization stats:
  Stopping criterion = force tolerance
  Energy initial, next-to-last, final =
  Force two-norm initial, final = 1.00121e-11 1.0003e-11
  Force max component initial, final = 6.47572e-14 6.47572e-14
  Final line search alpha, max atom move = 1 6.47572e-14
  Iterations, force evaluations = 1 2

fix               1 all box/relax iso  0.0
min_style         cg
min_modify line   quadratic
minimize          0   1e-4    10000     100000
Step CPU PotEng KinEng Fnorm Temp Lx Ly Lz Press c_eatomsav
1            0    -274094.3            0 1.0011435e-11            0      87.9525      87.9525      87.9525    32.509331   -4.3855088
Loop time of 5.14026 on 1 procs for 3 steps with 62500 atoms

Minimization stats:
  Stopping criterion = linesearch alpha is zero
  Energy initial, next-to-last, final =
  Force two-norm initial, final = 41.4156 0.0824982
  Force max component initial, final = 41.4156 0.0824982
  Final line search alpha, max atom move = 1.18374e-06 9.76563e-08
  Iterations, force evaluations = 3 26

unfix             1

variable          vol_peratom equal vol/atoms
variable          E_peratom equal pe/atoms
variable          latt_param equal lz/25          # WARNING
variable          forcenorm equal fnorm

#thomas

# ---------------------- EQUILIBRATION -------------------------------
reset_timestep	0
timestep 0.005  #0.001
velocity all create 300 12345 mom yes rot no
fix 1 all npt temp 300 300 1 iso 0 0 1 drag 1 #y 0 0 1 x 0 0 1 drag 1

## Set thermo output
thermo 100 #1000
thermo_style custom step lx ly lz press pxx pyy pzz pe temp

## Run for at least 10 picosecond (assuming 1 fs timestep)
run 2000 #4000 #20000
Step Lx Ly Lz Press Pxx Pyy Pzz PotEng Temp
0    87.953027    87.953027    87.953027    3804.8109    3783.9461    3806.2846    3824.2021    -274094.3          300
Averages over the last 11 of 21 rows, steps 1000 to 2000:
Lx Ly Lz Press Pxx Pyy Pzz PotEng Temp
88.1101 88.1101 88.1101 -37.5353 -48.1652 -32.3537 -32.0871 -272463 202.023
Loop time of 414.092 on 1 procs for 2000 steps with 62500 atoms

unfix 1

## Store final cell length for strain calculations
variable tmp equal "lz"
variable L0 equal 88.122643657246
Initial Length, L0: 88.122643657246

variable          Pressure  equal 0.1*press
print             " Vol_peratom (A^3)    E_peratom (eV)    Latt_param (A)    Fnorm (eV/A)    Pressure (MPa)" file Data_out.dat
 Vol_peratom (A^3)    E_peratom (eV)    Latt_param (A)    Fnorm (eV/A)    Pressure (MPa)

# ------------------------ DEFORMATION ---------------------------------
reset_timestep	0

fix		1 all npt temp 300 300 1 y 0 0 1 x 0 0 1 drag 1
variable srate equal 1.0e10
variable srate1 equal "v_srate / 1.0e12" #negative removed
fix		2 all deform 1 z erate 0.01 units box remap x
#fix		2 all deform 1 z erate  -0.01

# for units metal, pressure is in [bars] = 100 [kPa] = 1/10000 [GPa]
variable strain equal "(lz - v_L0)/v_L0"
variable p1 equal "v_strain"
variable p2 equal "-pxx/10000"
variable p3 equal "-pyy/10000"
variable p4 equal "-pzz/10000"

dump 		1 all custom 250 dump.Ni.comp_* id xs ys zs c_csym c_peratom fx fy fz

##dump_modify     1 element Ni

## Display thermo
thermo 	300 #1000
thermo_style	custom step v_strain temp v_p2 v_p3 v_p4 ke pe press

run 8000 #20000
Step v_strain Temp v_p2 v_p3 v_p4 KinEng PotEng Press
0 1.6126224e-16    221.64359 0.0061977628 0.0031215905 0.0067430443    1790.5765   -272341.09   -53.541325
Averages over the last 14 of 28 rows, steps 4200 to 8000:
v_strain Temp v_p2 v_p3 v_p4 KinEng PotEng Press
0.307143 445.641 0.0189281 0.0126983 8.02255 3600.17 -263758 -26847.2
Loop time of 1763.85 on 1 procs for 8000 steps with 62500 atoms

######################################
# SIMULATION DONE
print "All done"
All done
##    metal : [m] = g/mol, [x] = A,    [E]=eV, [q]=e, [T]=K, [t]=ps, [P]=bars=1e5Pa
