LAMMPS (23 Oct 2017)

# ------------------------ INITIALIZATION ----------------------------
##    metal : [m] = g/mol, [x] = A,    [E]=eV, [q]=e, [T]=K, [t]=ps, [P]=bars=1e5Pa
units 		metal
dimension	3
boundary    p p p
atom_style	atomic
#variable latparam equal 3.61 #4.05

# ----------------------- ATOM DEFINITION ----------------------------

read_data   Ni2516.lmp
  orthogonal box = (0 0 0) to (87.9525 87.9525 87.9525)
  reading atoms ...
  58048 atoms
group	Ni type 1
58048 atoms in group Ni

# ------------------------ FORCE FIELDS ------------------------------

pair_style	eam/fs #alloy
pair_coeff	* * Nickel_pot.txt Ni

# ------------------------- SETTINGS ---------------------------------
compute csym all centro/atom fcc
compute peratom all pe/atom

compute eng all pe/atom                          #c_eng : Epot/atom for each atom
compute eatomsav all reduce ave c_eng
#----------------- Thermo output ---------------------
thermo          10
thermo_style    custom step cpu pe ke fnorm temp lx ly lz press c_eatomsav

variable          Pressure  equal 0.1*press #change the unit from bar to MPa

#change_box all z delta 0 10

#thomas
#----------------- Simulation 1: Minimization + Relaxation ---------
## Relaxation parameters
## Min_style : sd = steepest descent, cg = conjugate gradients
min_style         cg
min_modify line   quadratic
#Minimization : etol    ftol   maxiter   maxeval
minimize          0   1e-7    10000      100000
  update every 1 steps, delay 0 steps, check yes
Step CPU PotEng KinEng Fnorm Temp Lx Ly Lz Press c_eatomsav
0            0   -252990.14            0    9.6449472            0      87.9525      87.9525      87.9525   -2172.3895   -4.3582921
Loop time of 48.3616 on 1 procs for 142 steps with 58048 atoms

Minimization stats:
  Stopping criterion = linesearch alpha is zero
  Energy initial, next-to-last, final =
  Force two-norm initial, final = 9.64495 0.000409604
  Force max component initial, final = 0.660418 6.88938e-05
  Final line search alpha, max atom move = 0.0625 4.30586e-06
  Iterations, force evaluations = 142 267

fix               1 all box/relax iso  0.0
min_style         cg
min_modify line   quadratic
minimize          0   1e-4    10000     100000
Step CPU PotEng KinEng Fnorm Temp Lx Ly Lz Press c_eatomsav
142            0   -253003.98            0 0.00040960443            0      87.9525      87.9525      87.9525   -2396.5925   -4.3585305
Averages over the last 96 of 191 rows, steps 1090 to 2034:
PotEng KinEng Fnorm Temp Lx Ly Lz Press c_eatomsav
-253006 0 0.461853 0 87.8772 87.8772 87.8772 0.339674 -4.35856
Loop time of 689.274 on 1 procs for 1892 steps with 58048 atoms

Minimization stats:
  Stopping criterion = linesearch alpha is zero
  Energy initial, next-to-last, final =
  Force two-norm initial, final = 3053.16 0.249152
  Force max component initial, final = 3053.16 0.200333
  Final line search alpha, max atom move = 1.69315e-07 3.39193e-08
  Iterations, force evaluations = 1892 3827

unfix             1

variable          vol_peratom equal vol/atoms
variable          E_peratom equal pe/atoms
variable          latt_param equal lz/25          # WARNING
variable          forcenorm equal fnorm

#thomas

# ---------------------- EQUILIBRATION -------------------------------
reset_timestep	0
timestep 0.005  #0.001
velocity all create 300 12345 mom yes rot no
fix 1 all npt temp 300 300 1 iso 0 0 1 drag 1 #y 0 0 1 x 0 0 1 drag 1

## Set thermo output
thermo 100 #1000
thermo_style custom step lx ly lz press pxx pyy pzz pe temp

## Run for at least 10 picosecond (assuming 1 fs timestep)
run 2000   # runing 20ps
Step Lx Ly Lz Press Pxx Pyy Pzz PotEng Temp
0    87.870679    87.870679    87.870679    3543.5088     3114.026    3140.2962    4376.2043   -253006.43          300
Averages over the last 11 of 21 rows, steps 1000 to 2000:
Lx Ly Lz Press Pxx Pyy Pzz PotEng Temp
87.9936 87.9936 87.9936 -79.5718 -137.869 -170.218 69.3718 -251488 202.936
Loop time of 373.239 on 1 procs for 2000 steps with 58048 atoms

unfix 1

## Store final cell length for strain calculations
variable tmp equal "lz"
variable L0 equal 88.0284909166276
Initial Length, L0: 88.0284909166276

variable          Pressure  equal 0.1*press
print             " Vol_peratom (A^3)    E_peratom (eV)    Latt_param (A)    Fnorm (eV/A)    Pressure (MPa)" file Data_out.dat
 Vol_peratom (A^3)    E_peratom (eV)    Latt_param (A)    Fnorm (eV/A)    Pressure (MPa)

# ------------------------ DEFORMATION ---------------------------------
reset_timestep	0

fix		1 all npt temp 300 300 1 y 0 0 1 x 0 0 1 drag 1
variable srate equal 1.0e10
variable srate1 equal "-v_srate / 1.0e12" #negative removed
fix		2 all deform 1 z erate -0.01 units box remap x
#fix		2 all deform 1 z erate  -0.01 units box remap x

# for units metal, pressure is in [bars] = 100 [kPa] = 1/10000 [GPa]
variable strain equal "(lz - v_L0)/v_L0"
variable p1 equal "v_strain"
variable p2 equal "-pxx/10000"
variable p3 equal "-pyy/10000"
variable p4 equal "-pzz/10000"

dump 		1 all custom 250 dump.Ni.comp_* id xs ys zs c_csym c_peratom fx fy fz

##dump_modify     1 element Ni

## Display thermo
thermo 	300
thermo_style	custom step v_strain temp v_p2 v_p3 v_p4 ke pe press

run 8000
Step v_strain Temp v_p2 v_p3 v_p4 KinEng PotEng Press
0 4.8430416e-16     220.4648  0.030289848  0.030424906  -0.05707708    1654.1835   -251355.94   -12.125578
Averages over the last 14 of 28 rows, steps 4200 to 8000:
v_strain Temp v_p2 v_p3 v_p4 KinEng PotEng Press
-0.307143 358.652 -0.00626292 -0.0145864 -4.27202 2691.03 -249665 14309.6
Loop time of 1720.44 on 1 procs for 8000 steps with 58048 atoms

######################################
# SIMULATION DONE
print "All done"
All done
##    metal : [m] = g/mol, [x] = A,    [E]=eV, [q]=e, [T]=K, [t]=ps, [P]=bars=1e5Pa
