LAMMPS (23 Oct 2017)

# ------------------------ INITIALIZATION ----------------------------
units 		metal
dimension	3
boundary	p	p	p
atom_style	atomic
#variable latparam equal 3.61 #4.05

# ----------------------- ATOM DEFINITION ----------------------------

read_data   Ni20.lmp
  orthogonal box = (0 0 0) to (70.4 70.4 70.4)
  reading atoms ...
  28567 atoms
group	Ni type 1
28567 atoms in group Ni

# ------------------------ FORCE FIELDS ------------------------------

pair_style	eam/fs #alloy
pair_coeff	* * Nickel_pot.txt Ni

# ------------------------- SETTINGS ---------------------------------
compute csym all centro/atom fcc
compute peratom all pe/atom

######################################
# EQUILIBRATION
reset_timestep	0
timestep 0.005  #0.001
velocity all create 300 12345 mom yes rot no
fix 1 all npt temp 300 300 1 iso 0 0 1 drag 1

# Set thermo output
thermo 100 #1000
thermo_style custom step lx ly lz press pxx pyy pzz pe temp

# Run for at least 10 picosecond (assuming 1 fs timestep)
run 2000  #4000 #20000
  update every 1 steps, delay 10 steps, check yes
Step Lx Ly Lz Press Pxx Pyy Pzz PotEng Temp
0         70.4         70.4         70.4   -1983.1913   -3023.9253   -3080.4244    154.77588   -124155.67          300
Averages over the last 11 of 21 rows, steps 1000 to 2000:
Lx Ly Lz Press Pxx Pyy Pzz PotEng Temp
70.3572 70.3572 70.3572 54.1863 173.924 186.77 -198.136 -123419 219.897
Loop time of 193.188 on 1 procs for 2000 steps with 28567 atoms

unfix 1

# Store final cell length for strain calculations
variable tmp equal "lz"                 # change lx by lz
variable L0 equal 70.3603787625222
Initial Length, L0: 70.3603787625222

######################################
# DEFORMATION
reset_timestep	0

fix		1 all npt temp 300 300 1 y 0 0 1 x 0 0 1 drag 1   # z changed by x
#variable srate equal 1.0e10
#variable srate1 equal "-v_srate / 1.0e12"

# Output strain and stress info to file
# for units metal, pressure is in [bars] = 100 [kPa] = 1/10000 [GPa]
# p2, p3, p4 are in GPa
variable strain equal "(lz - v_L0)/v_L0"  #changed lx by lz
variable p1 equal "v_strain"
variable p2 equal "-pxx/10000"
variable p3 equal "-pyy/10000"
variable p4 equal "-pzz/10000"

# Use cfg for AtomEye
dump 		1 all custom 250 dump.Ni.comp_* id xs ys zs c_csym c_peratom fx fy fz

#dump 		1 all cfg 250 dump.comp_*.cfg mass type xs ys zs c_csym c_peratom fx fy fz
#dump_modify     1 element Ni

# Display thermo
thermo 	100 #1000
thermo_style	custom step v_strain temp v_p2 v_p3 v_p4 ke pe press

run		4000 #20000
Step v_strain Temp v_p2 v_p3 v_p4 KinEng PotEng Press
0 -4.039448e-16    240.55427 -0.044180878 -0.034966433  0.017592646    888.23347   -123357.21    205.18222
Averages over the last 21 of 41 rows, steps 2000 to 4000:
v_strain Temp v_p2 v_p3 v_p4 KinEng PotEng Press
-0.15 317.377 -0.00969649 -0.00524143 -3.00213 1171.9 -123395 10056.9
Loop time of 420.754 on 1 procs for 4000 steps with 28567 atoms

######################################
# SIMULATION DONE
print "All done"
All done
