LAMMPS (23 Oct 2017)

# ------------------------ INITIALIZATION ----------------------------
##    metal : [m] = g/mol, [x] = A,    [E]=eV, [q]=e, [T]=K, [t]=ps, [P]=bars=1e5Pa
units 		metal
dimension	3
boundary    p p p
atom_style	atomic
#variable latparam equal 3.61 #4.05

# ----------------------- ATOM DEFINITION ----------------------------

read_data   Ni25b2.lmp
  orthogonal box = (0 0 0) to (87.9525 87.9525 87.9525)
  reading atoms ...
  56871 atoms
group	Ni type 1
56871 atoms in group Ni

# ------------------------ FORCE FIELDS ------------------------------

pair_style	eam/fs #alloy
pair_coeff	* * Nickel_pot.txt Ni

# ------------------------- SETTINGS ---------------------------------
compute csym all centro/atom fcc
compute peratom all pe/atom

compute eng all pe/atom                          #c_eng : Epot/atom for each atom
compute eatomsav all reduce ave c_eng
#----------------- Thermo output ---------------------
thermo          10
thermo_style    custom step cpu pe ke fnorm temp lx ly lz press c_eatomsav

variable          Pressure  equal 0.1*press #change the unit from bar to MPa

#change_box all z delta 0 10

#thomas
#----------------- Simulation 1: Minimization + Relaxation ---------
## Relaxation parameters
## Min_style : sd = steepest descent, cg = conjugate gradients
min_style         cg
min_modify line   quadratic
#Minimization : etol    ftol   maxiter   maxeval
minimize          0   1e-7    10000      100000
  update every 1 steps, delay 0 steps, check yes
Step CPU PotEng KinEng Fnorm Temp Lx Ly Lz Press c_eatomsav
0            0   -247917.07            0    7.6769535            0      87.9525      87.9525      87.9525   -2130.5459   -4.3592881
Loop time of 149.151 on 1 procs for 430 steps with 56871 atoms

Minimization stats:
  Stopping criterion = linesearch alpha is zero
  Energy initial, next-to-last, final =
  Force two-norm initial, final = 7.67695 0.000658559
  Force max component initial, final = 0.543593 0.000188416
  Final line search alpha, max atom move = 0.015625 2.94401e-06
  Iterations, force evaluations = 430 832

fix               1 all box/relax iso  0.0
min_style         cg
min_modify line   quadratic
minimize          0   1e-4    10000     100000
Step CPU PotEng KinEng Fnorm Temp Lx Ly Lz Press c_eatomsav
430            0   -247939.81            0 0.00065855929            0      87.9525      87.9525      87.9525   -4511.2889   -4.3596879
Averages over the last 152 of 303 rows, steps 1940 to 3445:
PotEng KinEng Fnorm Temp Lx Ly Lz Press c_eatomsav
-247946 0 1.54402 0 87.7677 87.7677 87.7677 -1.91261 -4.3598
Loop time of 1107.57 on 1 procs for 3015 steps with 56871 atoms

Minimization stats:
  Stopping criterion = linesearch alpha is zero
  Energy initial, next-to-last, final =
  Force two-norm initial, final = 5747.2 0.280616
  Force max component initial, final = 5747.2 0.272512
  Final line search alpha, max atom move = 8.96591e-08 2.44332e-08
  Iterations, force evaluations = 3015 6058

unfix             1

variable          vol_peratom equal vol/atoms
variable          E_peratom equal pe/atoms
variable          latt_param equal lz/25          # WARNING
variable          forcenorm equal fnorm

#thomas

# ---------------------- EQUILIBRATION -------------------------------
reset_timestep	0
timestep 0.001  #0.001
velocity all create 300 12345 mom yes rot no
fix 1 all npt temp 300 300 1 iso 0 0 1 drag 1 #y 0 0 1 x 0 0 1 drag 1

## Set thermo output
thermo 100 #1000
thermo_style custom step lx ly lz press pxx pyy pzz pe temp

## Run for at least 10 picosecond (assuming 1 fs timestep)
run 20000   # runing 20ps
Step Lx Ly Lz Press Pxx Pyy Pzz PotEng Temp
0    87.708011    87.708011    87.708011    3491.3806    4575.1077    4768.0574    1130.9766   -247948.69          300
Averages over the last 101 of 201 rows, steps 10000 to 20000:
Lx Ly Lz Press Pxx Pyy Pzz PotEng Temp
87.9092 87.9092 87.9092 0.334748 849.563 1004.62 -1853.18 -246118 250.482
Loop time of 3902.62 on 1 procs for 20000 steps with 56871 atoms

unfix 1

## Store final cell length for strain calculations
variable tmp equal "lz"
variable L0 equal 87.9120649030908
Initial Length, L0: 87.9120649030908

variable          Pressure  equal 0.1*press
print             " Vol_peratom (A^3)    E_peratom (eV)    Latt_param (A)    Fnorm (eV/A)    Pressure (MPa)" file Data_out.dat
 Vol_peratom (A^3)    E_peratom (eV)    Latt_param (A)    Fnorm (eV/A)    Pressure (MPa)

# ------------------------ DEFORMATION ---------------------------------
reset_timestep	0

fix		1 all npt temp 300 300 1 y 0 0 1 x 0 0 1 drag 1
variable srate equal 1.0e10
variable srate1 equal "-v_srate / 1.0e12" #negative removed
fix		2 all deform 1 z erate -0.01 units box remap x
#fix		2 all deform 1 z erate  -0.01 units box remap x

# for units metal, pressure is in [bars] = 100 [kPa] = 1/10000 [GPa]
variable strain equal "(lz - v_L0)/v_L0"
variable p1 equal "v_strain"
variable p2 equal "-pxx/10000"
variable p3 equal "-pyy/10000"
variable p4 equal "-pzz/10000"

dump 		1 all custom 250 dump.Ni.comp_* id xs ys zs c_csym c_peratom fx fy fz

##dump_modify     1 element Ni

## Display thermo
thermo 	1000
thermo_style	custom step v_strain temp v_p2 v_p3 v_p4 ke pe press

run 20000
Step v_strain Temp v_p2 v_p3 v_p4 KinEng PotEng Press
0 -1.6164851e-16    275.02898  -0.10836879  -0.11423186   0.21356117    2021.7447   -245926.58    30.131576
Averages over the last 11 of 21 rows, steps 10000 to 20000:
v_strain Temp v_p2 v_p3 v_p4 KinEng PotEng Press
-0.15 320.916 0.000355715 -0.00870266 -3.02626 2359.06 -245605 10115.3
Loop time of 4115.17 on 1 procs for 20000 steps with 56871 atoms

######################################
# SIMULATION DONE
print "All done"
All done
##    metal : [m] = g/mol, [x] = A,    [E]=eV, [q]=e, [T]=K, [t]=ps, [P]=bars=1e5Pa
